test/data/ver2526pid.raw
@!IC, SBASE,REV,XFRRAT,NXFRAT,BASFRQ
0,   100.00, 34,     1,     1, 50.00     / PSS(R)E-34.9    FRI, NOV 07 2025  10:09
PICO HÁBIL DIURNO DEL VERANO 25/26 DEMANDA SADI 30960 MW

GENERAL, THRSHZ=0.0001, PQBRAK=0.7, BLOWUP=5.0
GAUSS, ITMX=100, ACCP=1.6, ACCQ=1.6, ACCM=1.0, TOL=0.0001
NEWTON, ITMXN=30, ACCN=1.0, TOLN=0.1, VCTOLQ=0.1, VCTOLV=0.00001, DVLIM=0.99, NDVFCT=0.99
ADJUST, ADJTHR=0.005, ACCTAP=1.0, TAPLIM=0.05, SWVBND=100.0, MXTPSS=99, MXSWIM=10
TYSL, ITMXTY=20, ACCTY=1.0, TOLTY=0.00001
SOLVER, FNSL, ACTAPS=1, AREAIN=0, PHSHFT=0, DCTAPS=1, SWSHNT=1, FLATST=0, VARLIM=0, NONDIV=0
RATING, 1, "RATE1 ", "RATING SET 1                    "
RATING, 2, "RATE2 ", "RATING SET 2                    "
RATING, 3, "RATE3 ", "RATING SET 3                    "
RATING, 4, "RATE4 ", "RATING SET 4                    "
RATING, 5, "RATE5 ", "RATING SET 5                    "
RATING, 6, "RATE6 ", "RATING SET 6                    "
RATING, 7, "RATE7 ", "RATING SET 7                    "
RATING, 8, "RATE8 ", "RATING SET 8                    "
RATING, 9, "RATE9 ", "RATING SET 9                    "
RATING,10, "RATE10", "RATING SET 10                   "
RATING,11, "RATE11", "RATING SET 11                   "
RATING,12, "RATE12", "RATING SET 12                   "
0 / END OF SYSTEM-WIDE DATA, BEGIN BUS DATA
@!   I,'NAME        ', BASKV, IDE,AREA,ZONE,OWNER, VM,        VA,    NVHI,   NVLO,   EVHI,   EVLO
    10,'NPMADRYN    ', 500.0000,1,  21,  51,  10,1.02532,  23.9075,1.10000,0.90000,1.10000,0.90000
    11,'NPMD.CHL    ', 500.0000,1,  21,  51,  10,0.99417,  33.9626,1.10000,0.90000,1.10000,0.90000
    12,'SCN_500     ', 500.0000,1,  21,  52,  10,1.01116,  26.8066,1.10000,0.90000,1.10000,0.90000
    15,'RSCRUZ      ', 500.0000,1,  21,  52,  10,1.00542,  25.9285,1.10000,0.90000,1.10000,0.90000
    19,'ESPERANZ    ', 500.0000,1,  21,  52,  10,1.00351,  25.5749,1.10000,0.90000,1.10000,0.90000
    86,'IBT F1  2345', 345.0000,1,  20,  50,  10,1.04292,  -0.0035,1.10000,0.90000,1.10000,0.90000
    87,'INF B1      ', 345.0000,3,  20,  50,  10,1.04000,   0.0000,1.10000,0.90000,1.10000,0.90000
   100,'FUTAL330    ', 330.0000,1,  21,  51,  10,1.04766,  48.3422,1.10000,0.90000,1.10000,0.90000
   102,'FUTAHI01    ',  13.8000,2,  21,  51,   6,1.04000,  52.3615,1.10000,0.90000,1.10000,0.90000
   104,'FUTAHI02    ',  13.8000,2,  21,  51,   6,1.04000,  52.3615,1.10000,0.90000,1.10000,0.90000
   106,'FUTAHI03    ',  13.8000,2,  21,  51,   6,1.04000,  52.3615,1.10000,0.90000,1.10000,0.90000
   108,'FUTAHI04    ',  13.8000,2,  21,  51,   6,1.04000,  52.3615,1.10000,0.90000,1.10000,0.90000
   115,'R.TURBIO    ', 220.0000,1,  21,  52,   1,1.01391,  24.0983,1.10000,0.90000,1.10000,0.90000
   117,'ESPERANZ    ', 220.0000,1,  21,  52,   1,1.00585,  24.5792,1.10000,0.90000,1.10000,0.90000
   118,'RGALLEGO    ', 220.0000,1,  21,  52,   1,1.00870,  23.5680,1.10000,0.90000,1.10000,0.90000
   190,'ALTG09CC    ',  10.5000,2,  16,  53,   8,1.02191,  35.3370,1.10000,0.90000,1.10000,0.90000
   191,'ALTG10CC    ',  10.5000,2,  16,  53,   8,1.02191,  35.3370,1.10000,0.90000,1.10000,0.90000
   192,'ALTV11CC    ',  10.5000,2,  16,  53,   8,1.02374,  34.2891,1.10000,0.90000,1.10000,0.90000
   193,'SERIE DT    ', 132.0000,1,  16,  53,   2,1.00000,  28.9205,1.10000,0.90000,1.10000,0.90000
   200,'PMADR330    ', 330.0000,1,  21,  51,   1,1.01554,  29.0364,1.10000,0.90000,1.10000,0.90000
   207,'ALUATG07    ',  11.0000,2,  16,  53,   8,1.02174,  22.9851,1.10000,0.90000,1.10000,0.90000
   208,'ALUATG08    ',  11.0000,2,  16,  53,   8,1.02174,  22.9851,1.10000,0.90000,1.10000,0.90000
   209,'ALUATV01    ',  11.0000,2,  16,  53,   8,1.02174,  22.9851,1.10000,0.90000,1.10000,0.90000
   210,'APPA330A    ', 330.0000,1,  16,  53,   2,1.01489,  29.0236,1.10000,0.90000,1.10000,0.90000
   211,'APPA330B    ', 330.0000,1,  16,  53,   2,1.01489,  29.0363,1.10000,0.90000,1.10000,0.90000
   212,'AL-CE0A2    ',  33.0000,1,  16,  53,   2,1.02174,  22.9851,1.10000,0.90000,1.10000,0.90000
   213,'APPA330C    ', 330.0000,1,  16,  53,   2,1.01489,  29.0362,1.10000,0.90000,1.10000,0.90000
   215,'LA FLECHA   ', 132.0000,1,  16,  53,  10,1.00250,  29.0335,1.10000,0.90000,1.10000,0.90000
   216,'AL-CE0A4    ',  33.0000,1,  16,  53,   2,1.02174,  22.9851,1.10000,0.90000,1.10000,0.90000
   217,'AL-CE0A5    ',  33.0000,1,  16,  53,   2,1.02174,  22.9851,1.10000,0.90000,1.10000,0.90000
   218,'AL-CE0A3    ',  33.0000,1,  16,  53,   2,1.02174,  22.9851,1.10000,0.90000,1.10000,0.90000
   219,'AEG         ',  13.2000,2,  16,  53,   4,1.02174,  22.9851,1.10000,0.90000,1.10000,0.90000
   220,'PMADRYN1    ', 132.0000,1,  21,  51,   1,1.03792,  28.5834,1.10000,0.90000,1.10000,0.90000
   221,'PMADRYN2    ', 132.0000,1,  21,  51,  10,1.01562,  26.4227,1.10000,0.90000,1.10000,0.90000
   222,'AL-CE0A1    ',  33.0000,1,  16,  53,   2,1.00160,  28.9331,1.10000,0.90000,1.10000,0.90000
   223,'LB ESTE     ', 132.0000,1,  21,  51,  10,1.01800,  28.9988,1.10000,0.90000,1.10000,0.90000
   224,'NPMAD330    ', 330.0000,1,  21,  51,  10,1.01566,  29.0072,1.10000,0.90000,1.10000,0.90000
   226,'LB OESTE    ', 132.0000,1,  21,  51,  10,1.02936,  28.3654,1.10000,0.90000,1.10000,0.90000
   227,'SERV AUX    ',  33.0000,1,  16,  53,   2,1.02174,  22.9851,1.10000,0.90000,1.10000,0.90000
   230,'DGPAL132    ', 132.0000,1,  21,  51,  10,1.03385,  28.4787,1.10000,0.90000,1.10000,0.90000
   240,'TRELW132    ', 132.0000,1,  21,  51,  10,1.01671,  29.9510,1.10000,0.90000,1.10000,0.90000
   242,'TREW13.2    ',  13.2000,2,  21,  51,   1,0.98489,  26.3129,1.10000,0.90000,1.10000,0.90000
   243,'RAWSON      ', 132.0000,1,  21,  51,   1,1.02143,  30.6560,1.10000,0.90000,1.10000,0.90000
   244,'TRELEW33    ',  33.0000,1,  21,  51,   1,0.98462,  27.0006,1.10000,0.90000,1.10000,0.90000
   246,'PE_PMADR    ', 132.0000,1,  21,  51,  10,1.01498,  27.2533,1.10000,0.90000,1.10000,0.90000
   250,'AMEGH132    ', 132.0000,1,  21,  51,   1,1.03786,  32.7927,1.10000,0.90000,1.10000,0.90000
   251,'AMEGHI01    ',  13.2000,2,  21,  51,   6,1.04000,  34.6509,1.10000,0.90000,1.10000,0.90000
   253,'PE_ALUAR    ', 132.0000,1,  16,  53,  10,1.00509,  30.8032,1.10000,0.90000,1.10000,0.90000
   254,'ALUA33_01   ',  33.0000,1,  16,  53,  10,0.99991,  33.9804,1.10000,0.90000,1.10000,0.90000
   255,'ALUAR33_03  ',  33.0000,1,  16,  53,  10,0.99955,  34.1044,1.10000,0.90000,1.10000,0.90000
   256,'ALUAR33_07  ',  33.0000,1,  16,  53,  10,1.00311,  34.2286,1.10000,0.90000,1.10000,0.90000
   257,'ALUAR33_09  ',  33.0000,1,  16,  53,  10,1.00352,  34.4729,1.10000,0.90000,1.10000,0.90000
   258,'PER-132     ', 132.0000,1,  21,  51,   1,1.02427,  31.1083,1.10000,0.90000,1.10000,0.90000
   259,'AL-CEB      ', 132.0000,1,  16,  53,   2,1.00000,  28.9205,1.10000,0.90000,1.10000,0.90000
   261,'AL-CEA      ', 132.0000,1,  16,  53,   2,1.00000,  28.9205,1.10000,0.90000,1.10000,0.90000
   264,'FUTAL132    ', 132.0000,1,  21,  51,  10,1.03819,  47.1946,1.10000,0.90000,1.10000,0.90000
   265,'AL-CEB0C    ',  33.0000,1,  16,  53,   2,1.00160,  28.9331,1.10000,0.90000,1.10000,0.90000
   266,'ESQUE132    ', 132.0000,1,  21,  51,  10,1.03146,  46.7739,1.10000,0.90000,1.10000,0.90000
   268,'SERIE AT    ', 132.0000,1,  16,  53,   2,1.00000,  28.9205,1.10000,0.90000,1.10000,0.90000
   269,'SERIE BT    ', 132.0000,1,  16,  53,   2,1.00000,  28.9205,1.10000,0.90000,1.10000,0.90000
   271,'ELCOIHUE    ', 132.0000,1,  21,  51,   1,1.01072,  46.4280,1.10000,0.90000,1.10000,0.90000
   272,'CHUBUNOR2   ', 132.0000,1,  21,  51,  10,1.01564,  27.1509,1.10000,0.90000,1.10000,0.90000
   273,'PMADRYN2    ', 132.0000,1,  21,  51,  10,1.01562,  26.4227,1.10000,0.90000,1.10000,0.90000
   275,'LB          ', 132.0000,1,  21,  51,  10,1.01624,  29.2477,1.10000,0.90000,1.10000,0.90000
   280,'GOLONDRI    ',  13.2000,1,  21,  51,  10,0.94639,  45.7289,1.10000,0.90000,1.10000,0.90000
   281,'LIMRN-CH    ',  13.2000,1,  21,  51,  10,0.88819,  45.5787,1.10000,0.90000,1.10000,0.90000
   282,'ELBOLSON    ',  13.2000,1,  21,  51,   1,0.84478,  45.4532,1.10000,0.90000,1.10000,0.90000
   300,'SGRAN132    ', 132.0000,1,   7,  26,   1,0.99602,  22.7923,1.10000,0.90000,1.10000,0.90000
   310,'PCOLO132    ', 132.0000,1,   7,  26,  10,0.99582,  22.7393,1.10000,0.90000,1.10000,0.90000
   311,'MALASPINA   ', 132.0000,1,  21,  51,  10,1.02557,  34.6959,1.10000,0.90000,1.10000,0.90000
   315,'RSCRUZ      ', 132.0000,1,  21,  52,   1,1.01918,  25.7025,1.10000,0.90000,1.10000,0.90000
   320,'SANOE132    ', 132.0000,1,   7,  26,   1,0.95590,  17.9866,1.10000,0.90000,1.10000,0.90000
   322,'SANES132    ', 132.0000,1,   7,  26,   1,0.95174,  17.4427,1.10000,0.90000,1.10000,0.90000
   330,'VIEDM132    ', 132.0000,1,   7,  26,   1,0.97456,   8.4466,1.10000,0.90000,1.10000,0.90000
   332,'VIED13.2    ',  13.2000,1,   7,  26,   1,0.99378,   4.2185,1.10000,0.90000,1.10000,0.90000
   334,'VIEDMA33    ',  33.0000,1,   7,  26,  10,1.00253,   5.7131,1.10000,0.90000,1.10000,0.90000
   400,'C.RIV.A1    ', 132.0000,1,  21,  51,  10,0.99975,  31.2049,1.10000,0.90000,1.10000,0.90000
   401,'C.RIV.A     ', 132.0000,1,  21,  51,  10,0.99969,  31.2000,1.10000,0.90000,1.10000,0.90000
   402,'GARAYALDE   ', 132.0000,1,  21,  51,  10,1.03589,  34.5771,1.10000,0.90000,1.10000,0.90000
   403,'HERCULES    ', 132.0000,1,  21,  52,  10,1.01580,  32.6687,1.10000,0.90000,1.10000,0.90000
   404,'ESCALANT    ', 132.0000,1,  21,  51,  10,0.99109,  31.7499,1.10000,0.90000,1.10000,0.90000
   405,'PE_MBEHR    ', 132.0000,1,  21,  51,  10,1.00178,  33.2150,1.10000,0.90000,1.10000,0.90000
   406,'CRIVTG26    ',  13.2000,2,  21,  51,   4,0.99969,  31.2000,1.10000,0.90000,1.10000,0.90000
   407,'GARA33_01   ',  33.0000,1,  21,  51,  10,1.02379,  36.8555,1.10000,0.90000,1.10000,0.90000
   408,'C.RIV.A1    ',  10.4000,1,  21,  51,   1,0.99073,  29.6082,1.10000,0.90000,1.10000,0.90000
   409,'CRIVTG21    ',  10.4000,2,  21,  51,   4,0.99073,  29.6082,1.10000,0.90000,1.10000,0.90000
   410,'C.RIV.A1    ',  66.0000,2,  21,  51,   1,0.99436,  31.9606,1.10000,0.90000,1.10000,0.90000
   411,'ESCALANT2   ', 132.0000,1,  21,  51,   1,0.99109,  31.7499,1.10000,0.90000,1.10000,0.90000
   412,'CT_MBEHR2   ', 132.0000,1,  21,  51,  10,1.00171,  33.2541,1.10000,0.90000,1.10000,0.90000
   413,'BICE33_02   ',  33.0000,1,  21,  52,  10,1.01113,  41.2047,1.10000,0.90000,1.10000,0.90000
   415,'GARA13_01   ',  13.2000,1,  21,  51,  10,1.02344,  37.0228,1.10000,0.90000,1.10000,0.90000
   416,'SEBER1      ',  66.0000,1,  21,  51,   1,1.00590,  33.7892,1.10000,0.90000,1.10000,0.90000
   417,'SEBER1_35   ',  35.0000,1,  21,  51,  10,0.98903,  36.7523,1.10000,0.90000,1.10000,0.90000
   418,'SEBER2      ',  35.0000,1,  21,  51,   1,0.99312,  37.3107,1.10000,0.90000,1.10000,0.90000
   420,'C.RIV.A1    ',  33.0000,2,  21,  51,   1,0.98994,  29.4063,1.10000,0.90000,1.10000,0.90000
   422,'CRIVTG23    ',  13.8000,2,  21,  51,   4,0.98693,  28.8301,1.10000,0.90000,1.10000,0.90000
   423,'MB_ALL_35   ',  35.0000,1,  21,  51,  10,0.99312,  37.3107,1.10000,0.90000,1.10000,0.90000
   424,'MB_JEN_35   ',  35.0000,1,  21,  51,  10,0.99312,  37.3107,1.10000,0.90000,1.10000,0.90000
   437,'CRIVTG78    ',  13.8000,2,  21,  51,   8,0.99969,  31.2000,1.10000,0.90000,1.10000,0.90000
   438,'CRIVTV25    ',  13.8000,2,  21,  51,   8,0.99969,  31.2000,1.10000,0.90000,1.10000,0.90000
   440,'VHERM132    ', 132.0000,2,  21,  51,   1,0.96770,  30.2400,1.10000,0.90000,1.10000,0.90000
   441,'SAN JOSE    ', 132.0000,1,  21,  52,   1,0.99115,  30.7051,1.10000,0.90000,1.10000,0.90000
   442,'CNEGR132    ', 132.0000,2,  21,  51,   1,0.95731,  29.7171,1.10000,0.90000,1.10000,0.90000
   444,'PAMCA132    ', 132.0000,2,  21,  51,   1,0.98189,  31.0407,1.10000,0.90000,1.10000,0.90000
   445,'TORDI132    ', 132.0000,2,  21,  51,   1,0.98091,  30.9862,1.10000,0.90000,1.10000,0.90000
   446,'LPER1132    ', 132.0000,1,  21,  52,   1,1.03417,  35.2450,1.10000,0.90000,1.10000,0.90000
   448,'LASHE132    ', 132.0000,2,  21,  52,   1,1.00579,  32.6409,1.10000,0.90000,1.10000,0.90000
   449,'DIADEMA     ', 132.0000,1,  21,  51,   1,0.99649,  31.7496,1.10000,0.90000,1.10000,0.90000
   450,'BSM132R     ', 132.0000,2,  21,  51,   1,0.99806,  31.1985,1.10000,0.90000,1.10000,0.90000
   451,'DIAD33_01   ',  33.0000,1,  21,  51,  10,0.97623,  34.4888,1.10000,0.90000,1.10000,0.90000
   453,'DIADEO01    ',   0.4000,2,  21,  51,  11,1.03000,  35.7153,1.10000,0.90000,1.10000,0.90000
   454,'C.OLIVIA    ', 132.0000,1,  21,  52,   1,1.03037,  32.1857,1.10000,0.90000,1.10000,0.90000
   455,'AIKE        ', 132.0000,1,  21,  52,   1,0.99434,  31.1160,1.10000,0.90000,1.10000,0.90000
   456,'ABASOLO     ', 132.0000,1,  21,  51,   1,1.00012,  31.3287,1.10000,0.90000,1.10000,0.90000
   457,'OROPLATA    ', 132.0000,1,  21,  52,   1,0.98245,  29.8438,1.10000,0.90000,1.10000,0.90000
   458,'C.LEON      ', 132.0000,1,  21,  52,  10,1.03367,  32.3889,1.10000,0.90000,1.10000,0.90000
   459,'PT1-132R    ', 132.0000,2,  21,  52,   1,1.02205,  29.7926,1.10000,0.90000,1.10000,0.90000
   460,'PT1-132M    ', 132.0000,1,  21,  52,   1,1.02205,  29.7926,1.10000,0.90000,1.10000,0.90000
   461,'SCN_132     ', 132.0000,1,  21,  52,  10,1.02297,  29.7069,1.10000,0.90000,1.10000,0.90000
   462,'PTRUN235    ',  35.0000,1,  21,  52,   1,1.00425,  30.0716,1.10000,0.90000,1.10000,0.90000
   463,'PTRUN35R    ',  35.0000,2,  21,  52,   1,1.00425,  30.0716,1.10000,0.90000,1.10000,0.90000
   464,'PTR1TG24    ',  13.8000,2,  21,  52,   4,0.96516,  30.0794,1.10000,0.90000,1.10000,0.90000
   466,'PTR1TG25    ',  10.5000,2,  21,  52,   4,0.96483,  30.0850,1.10000,0.90000,1.10000,0.90000
   467,'PCR         ', 132.0000,1,  21,  52,   1,1.02198,  29.9033,1.10000,0.90000,1.10000,0.90000
   468,'PTR1TG23    ',  10.5000,2,  21,  52,   4,1.00425,  30.0716,1.10000,0.90000,1.10000,0.90000
   470,'PT2--132    ', 132.0000,1,  21,  52,  10,1.02215,  29.7903,1.10000,0.90000,1.10000,0.90000
   472,'PT2-6.9     ',  35.0000,1,  21,  52,   1,1.02215,  29.7903,1.10000,0.90000,1.10000,0.90000
   474,'ELCORDON    ',  35.0000,1,  21,  52,   1,1.02412,  33.2551,1.10000,0.90000,1.10000,0.90000
   477,'MESESPI     ',  35.0000,1,  21,  52,   1,1.03056,  35.7990,1.10000,0.90000,1.10000,0.90000
   478,'MESEDI01    ',   0.4000,2,  21,  52,   4,1.00000,  41.9863,1.10000,0.90000,1.10000,0.90000
   479,'SCN_TER1    ',  33.0000,1,  21,  52,  10,1.02547,  29.4513,1.10000,0.90000,1.10000,0.90000
   480,'PDES132M    ', 132.0000,1,  21,  52,   1,1.02653,  37.0756,1.10000,0.90000,1.10000,0.90000
   483,'PS.A.BIEDMA ', 132.0000,1,  21,  52,   1,1.02861,  37.2805,1.10000,0.90000,1.10000,0.90000
   484,'SCN_TER2    ',  33.0000,1,  21,  52,  10,1.02506,  29.4929,1.10000,0.90000,1.10000,0.90000
   490,'CTPAT132    ', 132.0000,1,  21,  51,  10,1.00246,  31.4958,1.10000,0.90000,1.10000,0.90000
   491,'PATATG01    ',  11.5000,2,  21,  51,   8,1.03000,  35.2375,1.10000,0.90000,1.10000,0.90000
   492,'PATATG02    ',  11.5000,2,  21,  51,   8,1.00246,  31.4958,1.10000,0.90000,1.10000,0.90000
   493,'PATATV01    ',  11.5000,2,  21,  51,   8,1.03000,  32.6972,1.10000,0.90000,1.10000,0.90000
   494,'CHUBUNOR    ', 132.0000,1,  21,  51,  10,1.03533,  29.3876,1.10000,0.90000,1.10000,0.90000
   495,'PEBICENT    ', 132.0000,1,  21,  52,  10,1.02751,  37.6190,1.10000,0.90000,1.10000,0.90000
   500,'HERC33_01   ',  33.0000,1,  21,  52,  10,1.00774,  35.3391,1.10000,0.90000,1.10000,0.90000
   501,'PM33_01     ',  33.0000,1,  21,  51,  10,1.01193,  29.5473,1.10000,0.90000,1.10000,0.90000
   504,'RSCRUZ      ',  33.0000,1,  21,  52,   1,1.01904,  25.6783,1.10000,0.90000,1.10000,0.90000
   508,'LBVI33_02   ',  33.0000,1,  21,  51,  10,0.99155,  31.0016,1.10000,0.90000,1.10000,0.90000
   510,'PM33_02     ',  33.0000,1,  21,  51,  10,1.03770,  28.6400,1.10000,0.90000,1.10000,0.90000
   511,'PM33_01     ',  33.0000,1,  21,  51,  10,1.03625,  28.5582,1.10000,0.90000,1.10000,0.90000
   512,'C.LEON33_01 ',  33.0000,1,  21,  52,  10,1.02900,  34.8029,1.10000,0.90000,1.10000,0.90000
   513,'C.LEON33_02 ',  33.0000,1,  21,  52,  10,1.03238,  35.2604,1.10000,0.90000,1.10000,0.90000
   514,'CRITER10    ',  13.2000,1,  21,  51,  10,0.99353,  32.0808,1.10000,0.90000,1.10000,0.90000
   515,'CRITER11    ',  13.2000,1,  21,  52,  10,0.99380,  32.0412,1.10000,0.90000,1.10000,0.90000
   516,'ESQ1.TER    ',  13.2000,1,  21,  51,  10,1.00649,  42.9628,1.10000,0.90000,1.10000,0.90000
   517,'BICE33_01   ',  33.0000,1,  21,  52,  10,1.00843,  41.0170,1.10000,0.90000,1.10000,0.90000
   519,'KOST33_01   ',  33.0000,1,  21,  51,  10,0.95687,  33.6069,1.10000,0.90000,1.10000,0.90000
   520,'ESQUEL33    ',  33.0000,1,  21,  51,   1,1.00721,  43.0861,1.10000,0.90000,1.10000,0.90000
   521,'BICE33_03   ',  33.0000,1,  21,  52,  10,1.01199,  41.2169,1.10000,0.90000,1.10000,0.90000
   522,'ELCOIHUE    ',  33.0000,1,  21,  51,   1,0.95373,  44.3714,1.10000,0.90000,1.10000,0.90000
   524,'GOLONDRI    ',  33.0000,1,  21,  51,   1,0.95235,  46.4548,1.10000,0.90000,1.10000,0.90000
   526,'CHNO33_01   ',  33.0000,1,  21,  51,  10,1.01812,  31.6154,1.10000,0.90000,1.10000,0.90000
   527,'ELBOLSON    ',  33.0000,1,  21,  51,  10,0.98432,  47.8841,1.10000,0.90000,1.10000,0.90000
   528,'R.ESCONDIDO ',  33.0000,1,  21,  51,  10,1.01410,  50.5231,1.10000,0.90000,1.10000,0.90000
   532,'LBVI33_03   ',  33.0000,1,  21,  51,  10,0.99402,  31.1138,1.10000,0.90000,1.10000,0.90000
   533,'PEM33_01    ',  33.0000,1,  21,  51,  10,1.00187,  30.0718,1.10000,0.90000,1.10000,0.90000
   534,'PEM33_02    ',  33.0000,1,  21,  51,  10,1.00553,  30.4009,1.10000,0.90000,1.10000,0.90000
   535,'CTMB36_01   ',  36.7000,1,  21,  51,   1,0.98406,  31.9835,1.10000,0.90000,1.10000,0.90000
   536,'MBE2DI01    ',  11.0000,2,  21,  51,  10,1.00000,  33.4830,1.10000,0.90000,1.10000,0.90000
   537,'COIHU6_01   ',   6.6000,1,  21,  51,  10,0.95374,  44.3717,1.10000,0.90000,1.10000,0.90000
   538,'LGO-EBL     ',  33.0000,1,  21,  51,  10,0.95714,  46.6576,1.10000,0.90000,1.10000,0.90000
   539,'LPU-EBL     ',  33.0000,1,  21,  51,  10,0.97051,  47.2440,1.10000,0.90000,1.10000,0.90000
   540,'HERC33_02   ',  33.0000,1,  21,  52,  10,1.00581,  35.1613,1.10000,0.90000,1.10000,0.90000
   541,'PEM33_03    ',  33.0000,1,  21,  51,  10,1.01164,  31.3803,1.10000,0.90000,1.10000,0.90000
   542,'PM33_02     ',  33.0000,1,  21,  51,  10,1.01514,  26.5638,1.10000,0.90000,1.10000,0.90000
   544,'DIAD33_02   ',  33.0000,1,  21,  51,  10,0.97623,  34.4888,1.10000,0.90000,1.10000,0.90000
   545,'ESP.TER1    ',  33.0000,1,  21,  52,   1,0.99484,  24.4921,1.10000,0.90000,1.10000,0.90000
   546,'ESP.TER2    ',  33.0000,1,  21,  52,   1,1.05954,  24.0934,1.10000,0.90000,1.10000,0.90000
   549,'KOST33_02   ',  33.0000,1,  21,  51,  10,0.96428,  33.5329,1.10000,0.90000,1.10000,0.90000
   550,'CHNO33_02   ',  33.0000,1,  21,  51,  10,1.01748,  32.2178,1.10000,0.90000,1.10000,0.90000
   551,'MALAS33_01  ',  33.0000,1,  21,  51,  10,1.00703,  37.2707,1.10000,0.90000,1.10000,0.90000
   552,'MALAS33_02  ',  33.0000,1,  21,  51,  10,1.00828,  37.4437,1.10000,0.90000,1.10000,0.90000
   553,'DIAD33_03   ',  33.0000,1,  21,  51,  10,0.98514,  34.8621,1.10000,0.90000,1.10000,0.90000
   554,'SCN_TER3    ',  33.0000,1,  21,  52,  10,1.02137,  29.8730,1.10000,0.90000,1.10000,0.90000
   556,'R.TURBIO33  ',  33.0000,1,  21,  52,   1,0.98940,  23.5529,1.10000,0.90000,1.10000,0.90000
   557,'R.TURBIO13  ',  13.2000,1,  21,  52,  10,0.98893,  23.4963,1.10000,0.90000,1.10000,0.90000
   558,'CHNO33_03   ',  33.0000,1,  21,  51,  10,1.00891,  29.3446,1.10000,0.90000,1.10000,0.90000
   559,'CHNO33_04   ',  33.0000,1,  21,  51,  10,1.00925,  29.7964,1.10000,0.90000,1.10000,0.90000
   560,'PELB33_01   ',  33.0000,1,  21,  51,  10,1.00634,  33.4599,1.10000,0.90000,1.10000,0.90000
   561,'PELB33_02   ',  33.0000,1,  21,  51,  10,1.00985,  33.8626,1.10000,0.90000,1.10000,0.90000
   562,'PELB33_05   ',  33.0000,1,  21,  51,  10,1.00517,  33.4729,1.10000,0.90000,1.10000,0.90000
   563,'PELB33_06   ',  33.0000,1,  21,  51,  10,1.00759,  33.6788,1.10000,0.90000,1.10000,0.90000
   564,'PELB33_03   ',  33.0000,1,  21,  51,  10,1.00530,  33.7266,1.10000,0.90000,1.10000,0.90000
   565,'PELB33_04   ',  33.0000,1,  21,  51,  10,1.00836,  33.9077,1.10000,0.90000,1.10000,0.90000
   566,'PELB33_07   ',  33.0000,1,  21,  51,  10,1.00279,  32.0961,1.10000,0.90000,1.10000,0.90000
   567,'PELB33_08   ',  33.0000,1,  21,  51,  10,1.00775,  32.5370,1.10000,0.90000,1.10000,0.90000
   568,'LBVI33_01   ',  33.0000,1,  21,  51,  10,0.99151,  30.9857,1.10000,0.90000,1.10000,0.90000
   570,'PER-33      ',  33.0000,1,  21,  51,  10,0.98561,  34.0696,1.10000,0.90000,1.10000,0.90000
   571,'PER-33      ',  33.0000,1,  21,  51,  10,0.98821,  34.1950,1.10000,0.90000,1.10000,0.90000
   572,'LBVI33_04   ',  33.0000,1,  21,  51,  10,0.99353,  31.0948,1.10000,0.90000,1.10000,0.90000
   573,'CHNO33_02   ',  33.0000,1,  21,  51,  10,1.01986,  31.8339,1.10000,0.90000,1.10000,0.90000
   574,'CHNO33_05   ',  33.0000,1,  21,  51,  10,1.00921,  30.0313,1.10000,0.90000,1.10000,0.90000
   575,'CHNO33_06   ',  33.0000,1,  21,  51,  10,1.00865,  29.5891,1.10000,0.90000,1.10000,0.90000
   576,'FLECEO01_33 ',  33.0000,1,  16,  53,  10,0.99001,  32.1461,1.10000,0.90000,1.10000,0.90000
...
0 / END OF BUS DATA, BEGIN LOAD DATA
@!   I,'ID',STAT,AREA,ZONE,      PL,        QL,        IP,        IQ,        YP,        YQ, OWNER,SCALE,INTRPT,  DGENP,     DGENQ, DGENF
    86,'1 ',   1,  18,  50,    65.700,     0.000,     0.000,     0.000,     0.000,     0.000,  10,    1,  0,     0.000,     0.000,   0
   115,'1 ',   1,  21,  52,     4.702,     1.968,     0.000,     0.000,     0.000,     0.000,   1,    1,  0,     0.000,     0.000,   0
   118,'1 ',   1,  21,  52,    23.053,     4.446,     0.000,     0.000,     0.000,     0.000,   1,    1,  0,     0.000,     0.000,   0
   193,'1 ',   1,  16,  53,   240.000,   131.000,     0.000,     0.000,     0.000,     0.000,   2,    0,  0,     0.000,     0.000,   0
   217,'1 ',   1,  16,  53,   102.000,    60.300,     0.000,     0.000,     0.000,     0.000,   2,    0,  0,     0.000,     0.000,   0
   222,'1 ',   0,  16,  53,    72.000,    40.800,     0.000,     0.000,     0.000,     0.000,   2,    0,  0,     0.000,     0.000,   0
   227,'1 ',   1,  16,  53,    26.000,    12.600,     0.000,     0.000,     0.000,     0.000,   3,    0,  0,     0.000,     0.000,   0
   230,'1 ',   1,  21,  51,    36.766,    12.876,     0.000,     0.000,     0.000,     0.000,   1,    1,  0,     0.000,     0.000,   0
   242,'1 ',   0,  21,  51,     5.458,     2.797,     0.000,     0.000,     0.000,     0.000,   1,    1,  0,     0.000,     0.000,   0
   242,'2 ',   0,  21,  51,    12.621,     5.964,     0.000,     0.000,     0.000,     0.000,   1,    1,  0,     0.000,     0.000,   0
   242,'3 ',   1,  21,  51,    13.314,     6.443,     0.000,     0.000,     0.000,     0.000,   1,    1,  0,     0.000,     0.000,   0
   243,'1 ',   1,  21,  51,    14.942,     3.334,     0.000,     0.000,     0.000,     0.000,   1,    1,  0,     0.000,     0.000,   0
   244,'1 ',   1,  21,  51,    31.380,    14.466,     0.000,     0.000,     0.000,     0.000,   1,    1,  0,     0.000,     0.000,   0
   250,'1 ',   1,  21,  51,     0.510,     0.214,     0.000,     0.000,     0.000,     0.000,   1,    1,  0,     0.000,     0.000,   0
   250,'2 ',   0,  21,  51,     0.000,     0.000,     0.000,     0.000,     0.000,     0.000,   1,    1,  0,     0.000,     0.000,   0
   259,'1 ',   1,  16,  53,    20.000,    11.000,     0.000,     0.000,     0.000,     0.000,   3,    0,  0,     0.000,     0.000,   0
   265,'1 ',   0,  16,  53,    72.000,    40.800,     0.000,     0.000,     0.000,     0.000,   2,    0,  0,     0.000,     0.000,   0
   268,'1 ',   1,  16,  53,   180.000,   115.300,     0.000,     0.000,     0.000,     0.000,   2,    0,  0,     0.000,     0.000,   0
   269,'1 ',   1,  16,  53,   180.000,   115.300,     0.000,     0.000,     0.000,     0.000,   2,    0,  0,     0.000,     0.000,   0
   282,'1 ',   1,  21,  51,     1.596,     0.768,     0.000,     0.000,     0.000,     0.000,   1,    1,  0,     0.000,     0.000,   0
   300,'1 ',   1,   7,  26,     4.882,     1.926,     0.000,     0.000,     0.000,     0.000,   1,    1,  0,     0.000,     0.000,   0
   310,'1 ',   1,   7,  26,     1.190,     0.460,     0.000,     0.000,     0.000,     0.000,   2,    0,  0,     0.000,     0.000,   0
   315,'1 ',   1,  21,  52,     1.592,     0.521,     0.000,     0.000,     0.000,     0.000,   1,    1,  0,     0.000,     0.000,   0
   315,'2 ',   1,  21,  52,     1.592,     0.521,     0.000,     0.000,     0.000,     0.000,   1,    1,  0,     0.000,     0.000,   0
   320,'1 ',   1,   7,  26,    15.935,     5.235,     0.000,     0.000,     0.000,     0.000,   1,    1,  0,     0.000,     0.000,   0
   322,'1 ',   1,   7,  26,    17.386,     3.526,     0.000,     0.000,     0.000,     0.000,   1,    1,  0,     0.000,     0.000,   0
   332,'1 ',   1,   7,  26,    17.749,     8.624,     0.000,     0.000,     0.000,     0.000,   1,    1,  0,     0.000,     0.000,   0
   405,'1 ',   0,  21,  51,    33.888,    11.544,     0.000,     0.000,     0.000,     0.000,   2,    0,  0,     0.000,     0.000,   0
   408,'1 ',   0,  21,  51,     0.000,     0.000,     0.000,     0.000,     0.000,     0.000,   1,    1,  0,     0.000,     0.000,   0
   409,'1 ',   1,  21,  52,     4.994,     1.709,     0.000,     0.000,     0.000,     0.000,   1,    1,  0,     0.000,     0.000,   0
   409,'2 ',   0,  21,  52,     7.989,     2.734,     0.000,     0.000,     0.000,     0.000,   1,    1,  0,     0.000,     0.000,   0
   409,'3 ',   0,  21,  51,     2.207,     0.617,     0.000,     0.000,     0.000,     0.000,   1,    1,  0,     0.000,     0.000,   0
   410,'2 ',   0,  21,  51,    14.099,     6.455,     0.000,     0.000,     0.000,     0.000,   1,    1,  0,     0.000,     0.000,   0
   410,'3 ',   0,  21,  51,     0.134,     0.551,     0.000,     0.000,     0.000,     0.000,   1,    1,  0,     0.000,     0.000,   0
   411,'1 ',   1,  21,  51,    34.000,    22.400,     0.000,     0.000,     0.000,     0.000,   2,    0,  0,     0.000,     0.000,   0
   416,'1 ',   1,  21,  51,     0.656,     0.246,     0.000,     0.000,     0.000,     0.000,   1,    1,  0,     0.000,     0.000,   0
   418,'1 ',   1,  21,  51,    16.300,     7.000,     0.000,     0.000,     0.000,     0.000,   1,    0,  0,     0.000,     0.000,   0
   420,'1 ',   1,  21,  51,    13.598,     5.875,     0.000,     0.000,     0.000,     0.000,   1,    1,  0,     0.000,     0.000,   0
   420,'2 ',   1,  21,  51,     8.856,     3.607,     0.000,     0.000,     0.000,     0.000,   1,    1,  0,     0.000,     0.000,   0
   420,'3 ',   0,  21,  51,     4.900,     2.000,     0.000,     0.000,     0.000,     0.000,   1,    1,  0,     0.000,     0.000,   0
   422,'1 ',   1,  21,  51,    13.010,     3.544,     0.000,     0.000,     0.000,     0.000,   1,    1,  0,     0.000,     0.000,   0
   440,'1 ',   1,  21,  51,     9.816,     5.676,     0.000,     0.000,     0.000,     0.000,   1,    1,  0,     0.000,     0.000,   0
   440,'2 ',   0,  21,  51,    12.500,     4.000,     0.000,     0.000,     0.000,     0.000,   1,    1,  0,     0.000,     0.000,   0
   440,'3 ',   0,  21,  51,    14.988,     4.265,     0.000,     0.000,     0.000,     0.000,   1,    1,  0,     0.000,     0.000,   0
   441,'1 ',   1,  21,  52,     3.897,     1.685,     0.000,     0.000,     0.000,     0.000,   1,    1,  0,     0.000,     0.000,   0
   442,'1 ',   1,  21,  51,    11.304,     7.787,     0.000,     0.000,     0.000,     0.000,   1,    1,  0,     0.000,     0.000,   0
   442,'2 ',   0,  21,  51,     5.571,     2.551,     0.000,     0.000,     0.000,     0.000,   1,    1,  0,     0.000,     0.000,   0
   442,'3 ',   0,  21,  51,     2.500,     1.428,     0.000,     0.000,     0.000,     0.000,   1,    1,  0,     0.000,     0.000,   0
   444,'1 ',   1,  21,  51,    16.167,     3.652,     0.000,     0.000,     0.000,     0.000,   1,    1,  0,     0.000,     0.000,   0
   444,'2 ',   0,  21,  51,    12.166,     5.570,     0.000,     0.000,     0.000,     0.000,   1,    1,  0,     0.000,     0.000,   0
   444,'3 ',   0,  21,  51,     3.500,     0.658,     0.000,     0.000,     0.000,     0.000,   1,    1,  0,     0.000,     0.000,   0
   445,'1 ',   1,  21,  51,     5.132,     1.516,     0.000,     0.000,     0.000,     0.000,   1,    1,  0,     0.000,     0.000,   0
   445,'2 ',   0,  21,  51,     9.096,     4.165,     0.000,     0.000,     0.000,     0.000,   1,    1,  0,     0.000,     0.000,   0
   445,'3 ',   0,  21,  51,     3.500,     0.000,     0.000,     0.000,     0.000,     0.000,   1,    1,  0,     0.000,     0.000,   0
   446,'1 ',   1,  21,  52,    15.039,     8.282,     0.000,     0.000,     0.000,     0.000,   1,    1,  0,     0.000,     0.000,   0
   448,'1 ',   1,  21,  52,    26.066,    14.979,     0.000,     0.000,     0.000,     0.000,   1,    1,  0,     0.000,     0.000,   0
   448,'2 ',   0,  21,  52,    26.500,    11.661,     0.000,     0.000,     0.000,     0.000,   1,    1,  0,     0.000,     0.000,   0
   448,'3 ',   0,  21,  52,    10.299,     5.199,     0.000,     0.000,     0.000,     0.000,   1,    1,  0,     0.000,     0.000,   0
   450,'1 ',   0,  21,  51,    30.100,    15.400,     0.000,     0.000,     0.000,     0.000,   1,    1,  0,     0.000,     0.000,   0
   450,'2 ',   0,  21,  51,     0.000,     0.000,     0.000,     0.000,     0.000,     0.000,   1,    1,  0,     0.000,     0.000,   0
   450,'3 ',   0,  21,  51,     0.000,     0.000,     0.000,     0.000,     0.000,     0.000,   1,    1,  0,     0.000,     0.000,   0
   450,'4 ',   1,  21,  52,    28.230,     7.792,     0.000,     0.000,     0.000,     0.000,   1,    1,  0,     0.000,     0.000,   0
   451,'1 ',   1,  21,  51,     2.566,     0.257,     0.000,     0.000,     0.000,     0.000,   1,    1,  0,     0.000,     0.000,   0
   454,'1 ',   1,  21,  52,     9.239,     3.507,     0.000,     0.000,     0.000,     0.000,   1,    1,  0,     0.000,     0.000,   0
   456,'1 ',   1,  21,  51,    17.065,     6.951,     0.000,     0.000,     0.000,     0.000,   1,    1,  0,     0.000,     0.000,   0
   457,'1 ',   1,  21,  52,    16.500,     4.500,     0.000,     0.000,     0.000,     0.000,   2,    0,  0,     0.000,     0.000,   0
   459,'2 ',   0,  21,  52,     5.276,     1.803,     0.000,     0.000,     0.000,     0.000,   1,    1,  0,     0.000,     0.000,   0
   459,'3 ',   0,  21,  52,     7.732,     3.575,     0.000,     0.000,     0.000,     0.000,   1,    1,  0,     0.000,     0.000,   0
   460,'1 ',   1,  21,  52,    16.872,     6.927,     0.000,     0.000,     0.000,     0.000,   1,    1,  0,     0.000,     0.000,   0
   462,'1 ',   0,  21,  52,    27.630,    11.790,     0.000,     0.000,     0.000,     0.000,   1,    1,  0,     0.000,     0.000,   0
   463,'1 ',   1,  21,  52,     6.766,     5.187,     0.000,     0.000,     0.000,     0.000,   1,    1,  0,     0.000,     0.000,   0
   463,'2 ',   0,  21,  52,    15.000,     5.000,     0.000,     0.000,     0.000,     0.000,   1,    1,  0,     0.000,     0.000,   0
   467,'1 ',   1,  21,  52,     5.105,     1.680,     0.000,     0.000,     0.000,     0.000,   1,    1,  0,     0.000,     0.000,   0
   472,'1 ',   1,  21,  52,     0.000,     0.000,     0.000,     0.000,     0.000,     0.000,   1,    1,  0,     0.000,     0.000,   0
   472,'2 ',   0,  21,  52,     0.000,     0.000,     0.000,     0.000,     0.000,     0.000,   1,    1,  0,     0.000,     0.000,   0
   480,'1 ',   1,  21,  52,     3.650,     1.767,     0.000,     0.000,     0.000,     0.000,   1,    1,  0,     0.000,     0.000,   0
   520,'1 ',   1,  21,  51,     9.628,     3.209,     0.000,     0.000,     0.000,     0.000,   1,    1,  0,     0.000,     0.000,   0
   522,'1 ',   1,  21,  51,     8.860,     5.477,     0.000,     0.000,     0.000,     0.000,   1,    1,  0,     0.000,     0.000,   0
   524,'1 ',   1,  21,  51,     2.394,     1.149,     0.000,     0.000,     0.000,     0.000,   1,    1,  0,     0.000,     0.000,   0
   535,'1 ',   1,  21,  51,    19.800,    11.800,     0.000,     0.000,     0.000,     0.000,   2,    0,  0,     0.000,     0.000,   0
   556,'2 ',   1,  21,  52,     3.745,     1.813,     0.000,     0.000,     0.000,     0.000,   1,    1,  0,     0.000,     0.000,   0
   721,'1 ',   1,  21,  52,     6.696,     2.195,     0.000,     0.000,     0.000,     0.000,   1,    1,  0,     0.000,     0.000,   0
  1201,'1 ',   1,   7,  26,    10.132,     3.377,     0.000,     0.000,     0.000,     0.000,   1,    1,  0,     0.000,     0.000,   0
  1205,'1 ',   1,   7,  26,     8.916,     2.837,     0.000,     0.000,     0.000,     0.000,   1,    1,  0,     0.000,     0.000,   0
  1207,'1 ',   1,   7,  27,     8.558,     2.576,     0.000,     0.000,     0.000,     0.000,   1,    1,  0,     0.000,     0.000,   0
  1208,'1 ',   1,   7,  27,     2.034,     1.199,     0.000,     0.000,     0.000,     0.000,   1,    1,  0,     0.000,     0.000,   0
  1209,'1 ',   1,   7,  26,    13.206,     5.135,     0.000,     0.000,     0.000,     0.000,   1,    1,  0,     0.000,     0.000,   0
  1213,'1 ',   1,   7,  26,     8.000,     2.500,     0.000,     0.000,     0.000,     0.000,   2,    0,  0,     0.000,     0.000,   0
  1215,'1 ',   1,   7,  27,     1.150,     0.473,     0.000,     0.000,     0.000,     0.000,   1,    1,  0,     0.000,     0.000,   0
  1216,'1 ',   1,   7,  27,    17.157,     7.194,     0.000,     0.000,     0.000,     0.000,   1,    1,  0,     0.000,     0.000,   0
  1222,'1 ',   1,   7,  27,     7.500,     3.400,     0.000,     0.000,     0.000,     0.000,   1,    0,  0,     0.000,     0.000,   0
  1223,'1 ',   1,   7,  27,    24.700,     9.000,     0.000,     0.000,     0.000,     0.000,   1,    0,  0,     0.000,     0.000,   0
  1228,'1 ',   1,   7,  27,    10.659,     5.016,     0.000,     0.000,     0.000,     0.000,   1,    1,  0,     0.000,     0.000,   0
  1229,'1 ',   1,   7,  26,    22.696,    12.294,     0.000,     0.000,     0.000,     0.000,   1,    1,  0,     0.000,     0.000,   0
  1230,'1 ',   1,   7,  26,    11.154,     4.583,     0.000,     0.000,     0.000,     0.000,   1,    1,  0,     0.000,     0.000,   0
  1231,'2 ',   1,   7,  26,    10.410,     4.490,     0.000,     0.000,     0.000,     0.000,   1,    0,  0,     0.000,     0.000,   0
  1233,'2 ',   1,   7,  26,     7.310,     3.490,     0.000,     0.000,     0.000,     0.000,   1,    0,  0,     0.000,     0.000,   0
  1234,'1 ',   1,   7,  27,    17.199,     5.650,     0.000,     0.000,     0.000,     0.000,   1,    1,  0,     0.000,     0.000,   0
  1235,'1 ',   1,   7,  26,    22.408,     7.794,     0.000,     0.000,     0.000,     0.000,   1,    1,  0,     0.000,     0.000,   0
  1240,'1 ',   1,   7,  27,     5.542,     2.679,     0.000,     0.000,     0.000,     0.000,  10,    1,  0,     0.000,     0.000,   0
  1246,'1 ',   1,   7,  27,     3.511,     1.756,     0.000,     0.000,     0.000,     0.000,   1,    1,  0,     0.000,     0.000,   0
  1248,'1 ',   1,   7,  25,     8.112,     5.900,     0.000,     0.000,     0.000,     0.000,   1,    1,  0,     0.000,     0.000,   0
  1249,'1 ',   1,   7,  26,    14.320,     6.904,     0.000,     0.000,     0.000,     0.000,   1,    1,  0,     0.000,     0.000,   0
  1252,'1 ',   1,   7,  26,    43.685,    11.575,     0.000,     0.000,     0.000,     0.000,   1,    1,  0,     0.000,     0.000,   0
  1254,'1 ',   1,   7,  27,    44.482,    23.980,     0.000,     0.000,     0.000,     0.000,   1,    1,  0,     0.000,     0.000,   0
  1256,'1 ',   1,   7,  25,    11.947,     4.572,     0.000,     0.000,     0.000,     0.000,   1,    1,  0,     0.000,     0.000,   0
  1257,'1 ',   0,   7,  25,     7.890,     4.177,     0.000,     0.000,     0.000,     0.000,   1,    1,  0,     0.000,     0.000,   0
  1261,'1 ',   1,   7,  27,    21.317,     9.279,     0.000,     0.000,     0.000,     0.000,   1,    1,  0,     0.000,     0.000,   0
  1262,'1 ',   1,   7,  27,    18.400,     6.600,     0.000,     0.000,     0.000,     0.000,   1,    0,  0,     0.000,     0.000,   0
  1264,'1 ',   1,   7,  26,    18.589,     7.640,     0.000,     0.000,     0.000,     0.000,   1,    1,  0,     0.000,     0.000,   0
  1266,'1 ',   1,   7,  27,     1.396,     0.574,     0.000,     0.000,     0.000,     0.000,   1,    1,  0,     0.000,     0.000,   0
  1267,'1 ',   1,   7,  27,     9.593,     4.389,     0.000,     0.000,     0.000,     0.000,   1,    1,  0,     0.000,     0.000,   0
  1270,'1 ',   1,   7,  27,     0.656,     0.270,     0.000,     0.000,     0.000,     0.000,   1,    1,  0,     0.000,     0.000,   0
  1271,'1 ',   1,   7,  25,     2.065,     0.737,     0.000,     0.000,     0.000,     0.000,   1,    1,  0,     0.000,     0.000,   0
  1272,'1 ',   1,   7,  26,     6.927,     1.701,     0.000,     0.000,     0.000,     0.000,   1,    1,  0,     0.000,     0.000,   0
  1274,'1 ',   1,   7,  27,    17.448,     4.237,     0.000,     0.000,     0.000,     0.000,   1,    1,  0,     0.000,     0.000,   0
  1275,'1 ',   1,   7,  25,     0.400,     0.100,     0.000,     0.000,     0.000,     0.000,   3,    0,  0,     0.000,     0.000,   0
  1278,'1 ',   1,   7,  27,     7.626,     3.134,     0.000,     0.000,     0.000,     0.000,   1,    1,  0,     0.000,     0.000,   0
  1280,'1 ',   1,   7,  27,     3.000,     1.000,     0.000,     0.000,     0.000,     0.000,   2,    0,  0,     0.000,     0.000,   0
  1283,'1 ',   1,   7,  27,     9.279,     3.511,     0.000,     0.000,     0.000,     0.000,   1,    1,  0,     0.000,     0.000,   0
  1290,'1 ',   1,   7,  26,     3.315,     1.362,     0.000,     0.000,     0.000,     0.000,   1,    1,  0,     0.000,     0.000,   0
  1291,'1 ',   1,   7,  25,    18.142,     5.900,     0.000,     0.000,     0.000,     0.000,   1,    1,  0,     0.000,     0.000,   0
  1292,'1 ',   1,   7,  25,    41.447,    10.767,     0.000,     0.000,     0.000,     0.000,   1,    1,  0,     0.000,     0.000,   0
  1293,'1 ',   1,   7,  25,    15.192,     4.572,     0.000,     0.000,     0.000,     0.000,   1,    1,  0,     0.000,     0.000,   0
  1294,'1 ',   1,   7,  26,    12.100,     6.200,     0.000,     0.000,     0.000,     0.000,   2,    0,  0,     0.000,     0.000,   0
  1295,'1 ',   1,   7,  25,    34.809,    11.800,     0.000,     0.000,     0.000,     0.000,   1,    1,  0,     0.000,     0.000,   0
  1296,'1 ',   1,   7,  26,    20.820,     7.609,     0.000,     0.000,     0.000,     0.000,   1,    1,  0,     0.000,     0.000,   0
  1400,'1 ',   0,   7,  27,    21.000,     6.900,     0.000,     0.000,     0.000,     0.000,   1,    1,  0,     0.000,     0.000,   0
  1400,'S2',   0,   7,  27,     0.084,     0.063,     0.000,     0.000,     0.000,     0.000,   1,    1,  0,     0.000,     0.000,   0
  1500,'1 ',   1,   7,  27,     2.971,     1.221,     0.000,     0.000,     0.000,     0.000,   1,    1,  0,     0.000,     0.000,   0
  1501,'1 ',   1,   7,  27,     2.971,     1.221,     0.000,     0.000,     0.000,     0.000,   1,    1,  0,     0.000,     0.000,   0
  1503,'1 ',   1,   7,  25,     3.210,     0.653,     0.000,     0.000,     0.000,     0.000,   1,    1,  0,     0.000,     0.000,   0
  1504,'1 ',   1,   7,  27,    34.000,    13.600,     0.000,     0.000,     0.000,     0.000,   1,    0,  0,     0.000,     0.000,   0
  1508,'1 ',   1,   7,  25,    19.983,     7.851,     0.000,     0.000,     0.000,     0.000,   1,    1,  0,     0.000,     0.000,   0
  1509,'1 ',   1,   7,  25,    34.957,     8.850,     0.000,     0.000,     0.000,     0.000,   1,    1,  0,     0.000,     0.000,   0
  1510,'1 ',   1,   7,  25,    20.945,     5.900,     0.000,     0.000,     0.000,     0.000,   1,    1,  0,     0.000,     0.000,   0
  1511,'1 ',   1,   7,  27,     3.515,     1.305,     0.000,     0.000,     0.000,     0.000,   1,    1,  0,     0.000,     0.000,   0
  1514,'1 ',   1,   7,  26,    22.000,     6.333,     0.000,     0.000,     0.000,     0.000,   2,    0,  0,     0.000,     0.000,   0
  1515,'1 ',   1,   7,  27,     3.515,     1.305,     0.000,     0.000,     0.000,     0.000,   1,    1,  0,     0.000,     0.000,   0
  1530,'2 ',   0,   7,  27,    29.000,     9.500,     0.000,     0.000,     0.000,     0.000,   1,    1,  0,     0.000,     0.000,   0
  1540,'1 ',   1,   7,  27,     5.455,     2.303,     0.000,     0.000,     0.000,     0.000,  10,    1,  0,     0.000,     0.000,   0
  1546,'1 ',   1,   7,  27,     2.061,     0.606,     0.000,     0.000,     0.000,     0.000,  10,    1,  0,     0.000,     0.000,   0
  1563,'1 ',   1,   7,  27,    11.286,     4.514,     0.000,     0.000,     0.000,     0.000,   1,    1,  0,     0.000,     0.000,   0
  1566,'1 ',   1,   7,  26,     8.511,     2.837,     0.000,     0.000,     0.000,     0.000,   1,    1,  0,     0.000,     0.000,   0
  1568,'1 ',   1,   7,  26,     1.959,     0.804,     0.000,     0.000,     0.000,     0.000,   1,    1,  0,     0.000,     0.000,   0
  1570,'1 ',   1,   7,  26,     3.550,     1.459,     0.000,     0.000,     0.000,     0.000,   1,    1,  0,     0.000,     0.000,   0
  1572,'1 ',   1,   7,  26,     1.836,     0.755,     0.000,     0.000,     0.000,     0.000,   1,    1,  0,     0.000,     0.000,   0
  1574,'1 ',   1,   7,  26,    55.239,    13.327,     0.000,     0.000,     0.000,     0.000,   1,    1,  0,     0.000,     0.000,   0
  1581,'1 ',   1,   7,  26,    12.689,     4.230,     0.000,     0.000,     0.000,     0.000,   1,    1,  0,     0.000,     0.000,   0
  1606,'1 ',   1,   7,  27,    12.000,     6.000,     0.000,     0.000,     0.000,     0.000,   3,    0,  0,     0.000,     0.000,   0
  1610,'1 ',   1,   7,  25,     6.668,     2.624,     0.000,     0.000,     0.000,     0.000,   1,    1,  0,     0.000,     0.000,   0
  1620,'1 ',   1,   7,  27,    19.152,     7.871,     0.000,     0.000,     0.000,     0.000,   1,    1,  0,     0.000,     0.000,   0
  1644,'1 ',   1,   7,  27,    15.100,     6.900,     0.000,     0.000,     0.000,     0.000,   2,    0,  0,     0.000,     0.000,   0
  1647,'1 ',   1,   7,  27,    15.000,     5.000,     0.000,     0.000,     0.000,     0.000,   2,    0,  0,     0.000,     0.000,   0
  1818,'1 ',   1,   7,  27,    14.000,     6.000,     0.000,     0.000,     0.000,     0.000,   2,    0,  0,     0.000,     0.000,   0
  1823,'1 ',   1,   7,   2,     3.998,     1.314,     0.000,     0.000,     0.000,     0.000,   1,    1,  0,     0.000,     0.000,   0
  1840,'1 ',   1,   7,  27,     2.232,     0.917,     0.000,     0.000,     0.000,     0.000,   1,    1,  0,     0.000,     0.000,   0
  1841,'1 ',   1,   7,  27,     0.845,     0.346,     0.000,     0.000,     0.000,     0.000,   1,    1,  0,     0.000,     0.000,   0
  1850,'1 ',   1,   7,  26,    12.141,     5.042,     0.000,     0.000,     0.000,     0.000,   1,    1,  0,     0.000,     0.000,   0
  2200,'1 ',   1,   5,  22,    48.375,    20.338,     0.000,     0.000,     0.000,     0.000,   1,    1,  0,     0.000,     0.000,   0
  2204,'1 ',   1,   5,  21,    30.216,    10.895,     0.000,     0.000,     0.000,     0.000,   1,    1,  0,     0.000,     0.000,   0
  2210,'1 ',   1,   5,  22,    35.301,    14.527,     0.000,     0.000,     0.000,     0.000,   1,    1,  0,     0.000,     0.000,   0
  2212,'1 ',   1,   5,  22,    24.987,    12.348,     0.000,     0.000,     0.000,     0.000,   1,    1,  0,     0.000,     0.000,   0
  2215,'1 ',   1,   5,  21,    65.000,    39.000,     0.000,     0.000,     0.000,     0.000,   2,    0,  0,     0.000,     0.000,   0
  2216,'1 ',   1,   5,  21,    18.595,    10.169,     0.000,     0.000,     0.000,     0.000,   1,    1,  0,     0.000,     0.000,   0
  2220,'1 ',   1,   5,  24,    18.000,     7.000,     0.000,     0.000,     0.000,     0.000,   2,    0,  0,     0.000,     0.000,   0
  2221,'1 ',   1,   5,  23,    45.000,    15.000,     0.000,     0.000,     0.000,     0.000,   2,    0,  0,     0.000,     0.000,   0
  2222,'1 ',   1,   5,  24,     8.426,     5.230,     0.000,     0.000,     0.000,     0.000,   1,    1,  0,     0.000,     0.000,   0
  2224,'1 ',   1,   5,  23,    49.102,    26.003,     0.000,     0.000,     0.000,     0.000,   1,    1,  0,     0.000,     0.000,   0
  2225,'1 ',   1,   5,  23,    12.500,     4.100,     0.000,     0.000,     0.000,     0.000,   2,    0,  0,     0.000,     0.000,   0
  2226,'1 ',   1,   5,  21,    29.781,    17.142,     0.000,     0.000,     0.000,     0.000,   1,    1,  0,     0.000,     0.000,   0
  2227,'1 ',   1,   5,  21,    14.672,     6.392,     0.000,     0.000,     0.000,     0.000,   1,    1,  0,     0.000,     0.000,   0
  2229,'1 ',   1,   5,  21,    33.267,    17.433,     0.000,     0.000,     0.000,     0.000,   1,    1,  0,     0.000,     0.000,   0
  2230,'1 ',   1,   5,  21,    39.884,    21.943,     0.000,     0.000,     0.000,     0.000,   1,    1,  0,     0.000,     0.000,   0
  2232,'1 ',   1,   5,  24,     5.666,     2.179,     0.000,     0.000,     0.000,     0.000,   1,    1,  0,     0.000,     0.000,   0
  2233,'1 ',   1,   5,  23,    36.318,    17.287,     0.000,     0.000,     0.000,     0.000,   1,    1,  0,     0.000,     0.000,   0
  2234,'1 ',   1,   5,  24,    17.287,     6.247,     0.000,     0.000,     0.000,     0.000,   1,    1,  0,     0.000,     0.000,   0
  2235,'1 ',   1,   5,  24,     3.922,     1.598,     0.000,     0.000,     0.000,     0.000,   1,    1,  0,     0.000,     0.000,   0
  2236,'1 ',   1,   5,  22,    15.544,     8.135,     0.000,     0.000,     0.000,     0.000,   1,    1,  0,     0.000,     0.000,   0
  2238,'1 ',   1,   5,  24,     9.007,     2.615,     0.000,     0.000,     0.000,     0.000,   1,    1,  0,     0.000,     0.000,   0
  2239,'1 ',   1,   4,  21,     8.852,     2.789,     0.000,     0.000,     0.000,     0.000,   1,    1,  0,     0.000,     0.000,   0
  2240,'1 ',   1,   5,  22,     7.845,     3.196,     0.000,     0.000,     0.000,     0.000,   1,    1,  0,     0.000,     0.000,   0
  2242,'1 ',   1,   5,  22,    17.433,     8.862,     0.000,     0.000,     0.000,     0.000,   1,    1,  0,     0.000,     0.000,   0
  2243,'1 ',   1,   5,  22,    20.774,    10.314,     0.000,     0.000,     0.000,     0.000,   1,    1,  0,     0.000,     0.000,   0
  2244,'1 ',   1,   5,  21,    29.810,    14.328,     0.000,     0.000,     0.000,     0.000,   1,    1,  0,     0.000,     0.000,   0
  2246,'1 ',   1,   5,  21,    16.997,     9.443,     0.000,     0.000,     0.000,     0.000,   1,    1,  0,     0.000,     0.000,   0
  2248,'1 ',   1,   5,  22,    27.311,    13.365,     0.000,     0.000,     0.000,     0.000,   1,    1,  0,     0.000,     0.000,   0
  2249,'1 ',   1,   5,  22,    24.551,    11.622,     0.000,     0.000,     0.000,     0.000,   1,    1,  0,     0.000,     0.000,   0
  2253,'1 ',   1,   5,  21,     9.440,     3.540,     0.000,     0.000,     0.000,     0.000,   1,    1,  0,     0.000,     0.000,   0
  2254,'1 ',   1,   5,  24,     5.956,     3.341,     0.000,     0.000,     0.000,     0.000,   1,    1,  0,     0.000,     0.000,   0
  2256,'1 ',   1,   5,  22,     7.959,     3.269,     0.000,     0.000,     0.000,     0.000,   1,    1,  0,     0.000,     0.000,   0
  2257,'1 ',   0,   5,  22,    11.342,     3.852,     0.000,     0.000,     0.000,     0.000,   1,    1,  0,     0.000,     0.000,   0
  2258,'1 ',   1,   5,  22,    16.125,     6.101,     0.000,     0.000,     0.000,     0.000,   1,    1,  0,     0.000,     0.000,   0
  2259,'1 ',   1,   5,  22,    20.483,     7.118,     0.000,     0.000,     0.000,     0.000,   1,    1,  0,     0.000,     0.000,   0
  2260,'1 ',   1,   5,  21,     7.990,     2.760,     0.000,     0.000,     0.000,     0.000,   1,    1,  0,     0.000,     0.000,   0
  2263,'1 ',   1,   5,  21,     3.500,     1.600,     0.000,     0.000,     0.000,     0.000,   2,    0,  0,     0.000,     0.000,   0
  2266,'1 ',   1,   5,  24,    21.500,    10.600,     0.000,     0.000,     0.000,     0.000,   2,    0,  0,     0.000,     0.000,   0
  2267,'1 ',   1,   5,  21,     3.500,     1.600,     0.000,     0.000,     0.000,     0.000,   2,    0,  0,     0.000,     0.000,   0
  2268,'1 ',   1,   5,  21,    69.970,    27.187,     0.000,     0.000,     0.000,     0.000,   1,    1,  0,     0.000,     0.000,   0
  2270,'1 ',   1,   5,  21,    26.439,    10.895,     0.000,     0.000,     0.000,     0.000,   1,    1,  0,     0.000,     0.000,   0
...
0 / END OF LOAD DATA, BEGIN FIXED SHUNT DATA
@!   I,'ID',STATUS,  GL,        BL
    86,'1 ',1,     0.000,  2774.000
  1661,'1 ',1,     0.000,     0.000
  1662,'1 ',1,     0.000,     0.000
  1663,'1 ',1,     0.000,     0.000
  1664,'1 ',1,     0.000,     0.000
  1665,'1 ',1,     0.000,     0.000
  1666,'1 ',1,     0.000,     0.000
  1691,'1 ',1,     0.000,     0.000
  1692,'1 ',1,     0.000,     0.000
  3213,'1 ',1,     0.000,    24.000
  3224,'1 ',1,     0.000,    12.000
  3229,'1 ',1,     0.000,    12.000
  3232,'1 ',1,     0.000,    12.000
  3260,'1 ',1,     0.000,    12.000
  3293,'1 ',1,     0.000,    12.000
  3294,'1 ',1,     0.000,    14.400
  3294,'3 ',1,    48.000,     0.000
  3336,'1 ',1,     0.000,     6.000
  3338,'1 ',1,     0.000,    24.000
  3350,'1 ',1,     0.000,    12.000
  3360,'1 ',1,     0.000,    12.000
  3375,'1 ',1,     0.000,    12.000
  3380,'1 ',1,     0.000,    18.000
  3382,'1 ',1,     0.000,    24.000
  3410,'1 ',1,     0.000,     9.600
  3448,'1 ',1,     0.000,    12.000
  3453,'1 ',1,     0.000,    12.000
  3466,'1 ',1,     0.000,    12.000
  3467,'1 ',1,     0.000,    12.000
  3471,'1 ',1,     0.000,    12.000
  3478,'1 ',1,     0.000,    12.000
  3726,'1 ',1,     0.000,    12.000
  3741,'1 ',1,     0.000,    18.000
  5200,'1 ',1,     0.000,     4.000
  5210,'1 ',1,     0.000,     6.830
  5214,'1 ',1,     0.000,    12.000
  5215,'1 ',1,     0.000,     3.850
  5224,'1 ',1,     0.000,     7.210
  5228,'1 ',1,     0.000,     3.000
  5230,'1 ',1,     0.000,     4.000
  5231,'1 ',1,     0.000,     3.440
  5239,'1 ',1,     0.000,    20.000
  5244,'1 ',1,     0.000,    24.000
  5274,'1 ',1,     0.000,     1.000
  5284,'1 ',1,     0.000,     3.010
  5288,'1 ',1,     0.000,     3.000
  5291,'1 ',1,     0.000,     2.000
  5293,'1 ',1,     0.000,     4.500
  5295,'1 ',1,     0.000,     2.000
  5298,'1 ',1,     0.000,     3.710
  5510,'1 ',1,     0.000,    17.670
  5520,'1 ',1,     0.000,    10.500
  5521,'1 ',1,     0.000,     1.500
  5524,'1 ',1,     0.000,     3.000
  5528,'1 ',1,     0.000,     5.750
  5529,'1 ',1,     0.000,     2.380
  5531,'1 ',1,     0.000,     1.500
  5542,'1 ',1,     0.000,     7.500
  5543,'1 ',1,     0.000,     6.000
  5545,'1 ',1,     0.000,     3.250
  5551,'1 ',1,     0.000,     4.500
  5552,'1 ',1,     0.000,     4.600
  5570,'1 ',1,     0.000,     8.100
  5582,'1 ',1,     0.000,     2.000
  5602,'1 ',1,     0.000,     3.000
  5620,'1 ',1,     0.000,     5.000
  5650,'1 ',1,     0.000,    12.460
  5806,'1 ',1,     0.000,     6.000
  5812,'1 ',1,     0.000,    27.700
  5830,'1 ',1,     0.000,     6.000
  5831,'1 ',1,     0.000,     4.000
  5872,'1 ',1,     0.000,     3.000
  8583,'1 ',1,     0.000,     7.800
 90100,'1 ',1,     0.000,     3.308
 90160,'1 ',1,     0.000,     1.860
 90170,'1 ',1,     0.000,     1.993
 90200,'1 ',1,     0.000,     2.352
 90300,'1 ',1,     0.000,     2.666
 90481,'1 ',0,     0.000,     2.340
 90500,'1 ',1,     0.000,     5.561
 90511,'1 ',1,     0.000,     0.400
 90512,'1 ',1,     0.000,     0.400
 90513,'1 ',1,     0.000,     0.400
 90700,'1 ',1,     0.000,     1.732
 92401,'1 ',0,     0.000,    15.000
 95101,'1 ',1,     0.000,    31.500
 95101,'2 ',1,     0.000,    28.000
 95101,'3 ',1,     0.000,    28.000
 95101,'4 ',0,     0.000,    28.000
 95101,'5 ',0,     0.000,    28.000
 95960,'1 ',1,     0.000,    39.998
0 / END OF FIXED SHUNT DATA, BEGIN GENERATOR DATA
@!   I,'ID',      PG,        QG,        QT,        QB,     VS,    IREG,     MBASE,     ZR,         ZX,         RT,         XT,     GTAP,STAT, RMPCT,      PT,        PB,    O1,    F1,  O2,    F2,  O3,    F3,  O4,    F4,WMOD, WPF,NREG
    87,'1 ',    65.700, -3008.784,  9999.000, -9999.000,1.04000,    87, 18000.000, 0.00000E+0, 1.00000E+0, 0.00000E+0, 0.00000E+0,1.00000,1,  100.0,  9999.000, -9999.000,   1,1.0000
   102,'1 ',   110.000,    -7.616,    45.000,   -47.000,1.04000,   102,   140.000, 0.00000E+0, 2.20000E-1, 0.00000E+0, 0.00000E+0,1.00000,1,  100.0,   133.000,     0.000,   6,1.0000
   104,'1 ',   110.000,    -7.616,    45.000,   -47.000,1.04000,   104,   140.000, 0.00000E+0, 2.20000E-1, 0.00000E+0, 0.00000E+0,1.00000,1,  100.0,   133.000,     0.000,   6,1.0000
   106,'1 ',   110.000,    -7.616,    45.000,   -47.000,1.04000,   106,   140.000, 0.00000E+0, 2.20000E-1, 0.00000E+0, 0.00000E+0,1.00000,1,  100.0,   133.000,     0.000,   6,1.0000
   108,'1 ',   110.000,    -7.616,    45.000,   -47.000,1.04000,   108,   140.000, 0.00000E+0, 2.20000E-1, 0.00000E+0, 0.00000E+0,1.00000,1,  100.0,   133.000,     0.000,   6,1.0000
   190,'9 ',   155.000,    39.077,    99.600,   -40.800,1.00000,   259,   184.500, 0.00000E+0, 1.88000E-1, 0.00000E+0, 0.00000E+0,1.00000,1,  100.0,   165.000, -9999.000,   8,1.0000
   191,'10',   155.000,    39.077,    99.600,   -40.800,1.00000,   259,   184.500, 0.00000E+0, 1.88000E-1, 0.00000E+0, 0.00000E+0,1.00000,1,  100.0,   165.000, -9999.000,   8,1.0000
   192,'11',   130.000,    39.077,   114.000,   -80.000,1.00000,   259,   190.800, 0.00000E+0, 1.88000E-1, 0.00000E+0, 0.00000E+0,1.00000,1,  100.0,   140.000,    80.000,   8,1.0000
   207,'7 ',    38.000,    -6.250,    20.900,   -13.200,1.00000,   216,    48.240, 0.00000E+0, 1.69000E-1, 0.00000E+0, 0.00000E+0,1.00000,0,  100.0,    41.000,     0.000,   8,1.0000
   208,'8 ',    38.000,    -6.250,    28.181,   -21.273,1.00000,   216,    48.200, 0.00000E+0, 1.69000E-1, 0.00000E+0, 0.00000E+0,1.00000,0,  100.0,    49.000,     0.000,   8,1.0000
   209,'9 ',    32.000,    -6.250,    30.000,   -17.656,1.00000,   216,    50.350, 0.00000E+0, 1.83000E-1, 0.00000E+0, 0.00000E+0,1.00000,0,  100.0,    50.350,     0.000,   8,1.0000
   219,'21',    18.000,     7.511,    15.000,   -10.000,1.05000,   219,    31.500, 0.00000E+0, 1.50000E-1, 0.00000E+0, 0.00000E+0,1.00000,0,  100.0,    21.000, -9999.000,   4,1.0000
   219,'22',    18.000,     7.511,    15.000,   -10.000,1.05000,   219,    31.500, 0.00000E+0, 1.50000E-1, 0.00000E+0, 0.00000E+0,1.00000,0,  100.0,    21.000,     0.000,   4,1.0000
   242,'1 ',    -0.440,    -0.225,    -0.225,    -0.225,1.00000,   242,     0.543, 0.00000E+0, 1.57330E-1, 0.00000E+0, 0.00000E+0,1.00000,0,  100.0,  9999.000, -9999.000,   1,1.0000
   242,'2 ',    -0.659,    -0.338,    -0.338,    -0.338,1.00000,   242,     0.815, 0.00000E+0, 1.57330E-1, 0.00000E+0, 0.00000E+0,1.00000,0,  100.0,  9999.000, -9999.000,   1,1.0000
   242,'3 ',    -0.879,    -0.450,    -0.450,    -0.450,1.00000,   242,     1.087, 0.00000E+0, 1.57330E-1, 0.00000E+0, 0.00000E+0,1.00000,0,  100.0,  9999.000, -9999.000,   1,1.0000
   242,'4 ',   -11.962,    -3.730,    -3.730,    -3.730,1.00000,   242,    12.190, 0.00000E+0, 1.57330E-1, 0.00000E+0, 0.00000E+0,1.00000,0,  100.0,  9999.000, -9999.000,   1,1.0000
   251,'1 ',    10.000,     0.798,    15.000,    -6.000,1.04000,   251,    29.200, 0.00000E+0, 2.10000E-1, 0.00000E+0, 0.00000E+0,1.00000,1,  100.0,    23.400,     0.000,   6,1.0000
   406,'1 ',    25.500,   -10.000,    15.000,   -10.000,1.05000,   406,    32.250, 0.00000E+0, 1.50000E-1, 0.00000E+0, 0.00000E+0,1.00000,0,  100.0,  9999.000, -9999.000,   4,1.0000
   406,'2 ',    25.000,     1.279,    10.000,    -5.000,1.05000,   406,    22.000, 0.00000E+0, 1.52000E-1, 0.00000E+0, 0.00000E+0,1.00000,0,  100.0,  9999.000, -9999.000,   4,1.0000
   409,'1 ',    11.500,    -0.202,    12.000,    -7.000,1.03000,   409,    22.500, 0.00000E+0, 1.50000E-1, 0.00000E+0, 0.00000E+0,1.00000,0,  100.0,  9999.000, -9999.000,   4,1.0000
   410,'1 ',    -0.681,    -0.288,    -0.288,    -0.288,1.00000,   410,     0.814, 0.00000E+0, 1.57330E-1, 0.00000E+0, 0.00000E+0,1.00000,0,  100.0,  9999.000, -9999.000,   1,1.0000
   410,'2 ',    -1.022,    -0.432,    -0.432,    -0.432,1.00000,   410,     1.220, 0.00000E+0, 1.57330E-1, 0.00000E+0, 0.00000E+0,1.00000,0,  100.0,  9999.000, -9999.000,   1,1.0000
   410,'3 ',    -1.362,    -0.576,    -0.576,    -0.576,1.00000,   410,     1.627, 0.00000E+0, 1.57330E-1, 0.00000E+0, 0.00000E+0,1.00000,0,  100.0,  9999.000, -9999.000,   1,1.0000
   410,'4 ',   -19.073,    -8.800,    -8.800,    -8.800,1.00000,   410,    28.000, 0.00000E+0, 1.57330E-1, 0.00000E+0, 0.00000E+0,1.00000,0,  100.0,  9999.000, -9999.000,   1,1.0000
   420,'1 ',    -1.004,    -0.428,    -0.428,    -0.428,1.02000,   420,     1.201, 0.00000E+0, 1.57330E-1, 0.00000E+0, 0.00000E+0,1.00000,0,  100.0,  9999.000, -9999.000,   1,1.0000
   420,'2 ',    -1.506,    -0.642,    -0.642,    -0.642,1.02000,   420,     1.801, 0.00000E+0, 1.57330E-1, 0.00000E+0, 0.00000E+0,1.00000,0,  100.0,  9999.000, -9999.000,   1,1.0000
   420,'3 ',    -2.008,    -0.856,    -0.856,    -0.856,1.02000,   420,     2.402, 0.00000E+0, 1.57330E-1, 0.00000E+0, 0.00000E+0,1.00000,0,  100.0,  9999.000, -9999.000,   1,1.0000
   420,'4 ',   -33.295,   -10.000,   -10.000,   -10.000,1.02000,   420,    34.730, 0.00000E+0, 1.57330E-1, 0.00000E+0, 0.00000E+0,1.00000,0,  100.0,  9999.000, -9999.000,   1,1.0000
   422,'1 ',    16.000,     2.292,    13.000,    -7.000,0.98000,   422,    26.150, 0.00000E+0, 1.70000E-1, 0.00000E+0, 0.00000E+0,1.00000,0,  100.0,    20.500,     0.000,   4,1.0000
   437,'1 ',    20.000,     4.928,    15.000,    -5.000,1.05000,   437,    30.400, 0.00000E+0, 2.01000E-1, 0.00000E+0, 0.00000E+0,1.00000,0,  100.0,    25.000,     0.000,   8,1.0000
   437,'2 ',    20.000,     4.614,    15.000,    -5.000,1.05000,   437,    30.400, 0.00000E+0, 2.01000E-1, 0.00000E+0, 0.00000E+0,1.00000,0,  100.0,    25.000,     0.000,   8,1.0000
   438,'2 ',    20.000,     4.441,    15.000,    -5.000,1.05000,   438,    28.000, 0.00000E+0, 1.86000E-1, 0.00000E+0, 0.00000E+0,1.00000,0,  100.0,    22.600,     0.000,   8,1.0000
   440,'1 ',    -0.434,    -0.325,    -0.325,    -0.325,1.00000,   440,     0.596, 0.00000E+0, 1.57330E-1, 0.00000E+0, 0.00000E+0,1.00000,0,  100.0,  9999.000, -9999.000,   1,1.0000
   440,'2 ',    -0.650,    -0.488,    -0.488,    -0.488,1.00000,   440,     0.894, 0.00000E+0, 1.57330E-1, 0.00000E+0, 0.00000E+0,1.00000,0,  100.0,  9999.000, -9999.000,   1,1.0000
   440,'3 ',    -0.867,    -0.650,    -0.650,    -0.650,1.00000,   440,     1.192, 0.00000E+0, 1.57330E-1, 0.00000E+0, 0.00000E+0,1.00000,0,  100.0,  9999.000, -9999.000,   1,1.0000
   440,'4 ',   -12.238,    -4.000,    -4.000,    -4.000,1.00000,   440,    20.700, 0.00000E+0, 1.57330E-1, 0.00000E+0, 0.00000E+0,1.00000,0,  100.0,  9999.000, -9999.000,   1,1.0000
   442,'1 ',    -0.138,    -0.055,    -0.055,    -0.055,1.00000,   442,     0.164, 0.00000E+0, 1.57330E-1, 0.00000E+0, 0.00000E+0,1.00000,0,  100.0,  9999.000, -9999.000,   1,1.0000
   442,'2 ',    -0.208,    -0.082,    -0.082,    -0.082,1.00000,   442,     0.246, 0.00000E+0, 1.57330E-1, 0.00000E+0, 0.00000E+0,1.00000,0,  100.0,  9999.000, -9999.000,   1,1.0000
   442,'3 ',    -0.277,    -0.110,    -0.110,    -0.110,1.00000,   442,     0.327, 0.00000E+0, 1.57330E-1, 0.00000E+0, 0.00000E+0,1.00000,0,  100.0,  9999.000, -9999.000,   1,1.0000
   442,'4 ',    -6.064,    -3.000,    -3.000,    -3.000,1.00000,   442,     6.320, 0.00000E+0, 1.57330E-1, 0.00000E+0, 0.00000E+0,1.00000,0,  100.0,  9999.000, -9999.000,   1,1.0000
   444,'1 ',    -0.444,    -0.240,    -0.240,    -0.240,1.00000,   444,     0.555, 0.00000E+0, 1.57330E-1, 0.00000E+0, 0.00000E+0,1.00000,0,  100.0,  9999.000, -9999.000,   1,1.0000
   444,'2 ',    -0.665,    -0.359,    -0.359,    -0.359,1.00000,   444,     0.832, 0.00000E+0, 1.57330E-1, 0.00000E+0, 0.00000E+0,1.00000,0,  100.0,  9999.000, -9999.000,   1,1.0000
...